# generated using pymatgen
data_Au
_symmetry_space_group_name_H-M   'P 1'
_cell_length_a   2.96222304
_cell_length_b   8.27607500
_cell_length_c   23.69778716
_cell_angle_alpha   90.00000000
_cell_angle_beta   90.00000000
_cell_angle_gamma   90.00000000
_symmetry_Int_Tables_number   1
_chemical_formula_structural   Au
_chemical_formula_sum   Au14
_cell_volume   580.96499832
_cell_formula_units_Z   14
loop_
 _symmetry_equiv_pos_site_id
 _symmetry_equiv_pos_as_xyz
  1  'x, y, z'
loop_
 _atom_site_type_symbol
 _atom_site_label
 _atom_site_symmetry_multiplicity
 _atom_site_fract_x
 _atom_site_fract_y
 _atom_site_fract_z
 _atom_site_occupancy
  Au  Au1  1  -0.000000  -0.001284  0.601742  1
  Au  Au2  1  0.000000  0.498765  0.587887  1
  Au  Au3  1  0.000000  0.499831  0.708024  1
  Au  Au4  1  0.500000  0.245895  0.657434  1
  Au  Au5  1  0.500000  0.754351  0.658338  1
  Au  Au6  1  0.500000  0.239208  0.532156  1
  Au  Au7  1  0.500000  0.757444  0.531757  1
  Au  Au8  1  0.000000  -0.004351  0.341662  1
  Au  Au9  1  0.000000  0.504105  0.342566  1
  Au  Au10  1  0.000000  -0.007444  0.468243  1
  Au  Au11  1  0.000000  0.510792  0.467844  1
  Au  Au12  1  0.500000  0.251235  0.412113  1
  Au  Au13  1  0.500000  0.751284  0.398258  1
  Au  Au14  1  0.500000  0.250169  0.291976  1
