# generated using pymatgen
data_Au
_symmetry_space_group_name_H-M   'P 1'
_cell_length_a   2.95047800
_cell_length_b   2.95047809
_cell_length_c   43.36299000
_cell_angle_alpha   90.00000000
_cell_angle_beta   90.00000000
_cell_angle_gamma   119.99999904
_symmetry_Int_Tables_number   1
_chemical_formula_structural   Au
_chemical_formula_sum   Au9
_cell_volume   326.91483612
_cell_formula_units_Z   9
loop_
 _symmetry_equiv_pos_site_id
 _symmetry_equiv_pos_as_xyz
  1  'x, y, z'
loop_
 _atom_site_type_symbol
 _atom_site_label
 _atom_site_symmetry_multiplicity
 _atom_site_fract_x
 _atom_site_fract_y
 _atom_site_fract_z
 _atom_site_occupancy
  Au  Au1  1  0.666667  0.333333  0.333539  1
  Au  Au2  1  0.333333  0.666667  0.277558  1
  Au  Au3  1  0.000000  0.000000  0.388767  1
  Au  Au4  1  0.666667  0.333333  0.500000  1
  Au  Au5  1  0.333333  0.666667  0.444454  1
  Au  Au6  1  0.000000  0.000000  0.555546  1
  Au  Au7  1  0.666667  0.333333  0.666461  1
  Au  Au8  1  0.333333  0.666667  0.611233  1
  Au  Au9  1  0.000000  0.000000  0.722442  1
